8
CH5OCl
C        0.419255331     -1.045880804     -0.157832358
H        0.807294030     -0.159010536     -0.636671680
H       -0.473901533     -1.709102705     -0.529826696
H        1.057761271     -1.186578037      0.701768976
O       -0.815229075      0.635516230      0.756677168
H       -1.290170807      0.351323443      1.541065344
H       -0.429352362      1.500692207      0.912143211
Cl       1.727602661     -2.428632063     -1.090881971
8
 energy: -12.835558769705 gnorm: 0.000591414261 xtb: 6.7.1 (edcfbbe)
C            0.44404925480638       -1.03129066394863       -0.35440304326341
H            0.78497431158201       -0.27927491187495       -1.04737505918636
H           -0.47456134454294       -1.55736319679466       -0.55939577521411
H            0.65331857780146       -0.83771807986558        0.70332945269343
O           -0.73483544482739        0.57276323673473        0.75235417036311
H           -1.34092277365076        0.27506440206665        1.44852684927703
H           -0.25035541645609        1.35726124701235        1.05284437027980
Cl           1.92159235128718       -2.54111429833016       -0.49943897094867
8
 energy: -12.834447822672 gnorm: 0.000596642061 xtb: 6.7.1 (edcfbbe)
C            0.43843857605250       -1.01832238891642       -0.33359778757237
H            0.77688314631565       -0.26438334966317       -1.02520151150157
H           -0.48118286676200       -1.54213120719943       -0.53768455138259
H            0.68894025093805       -0.86628523617979        0.72027770216553
O           -0.74347468308680        0.57295837815531        0.73202777575809
H           -1.34023524898883        0.26996946657748        1.43390794107209
H           -0.24700622207842        1.34825181499104        1.03719182319539
Cl           1.91089656360981       -2.54172974276530       -0.53047939773371
8
 energy: -12.833241889558 gnorm: 0.000749008080 xtb: 6.7.1 (edcfbbe)
C            0.43268445399661       -1.00426850973498       -0.31432373490478
H            0.77149106995102       -0.25121037227789       -1.00565971882095
H           -0.48697289332224       -1.52716242114506       -0.51813285906703
H            0.72110501812371       -0.89208604582338        0.73348801842371
O           -0.74913716023960        0.57248448140517        0.71504893848770
H           -1.33974171266555        0.26354743213708        1.42010658372261
H           -0.24478146608135        1.34206439148442        1.02280179103541
Cl           1.89861220623741       -2.54504122104554       -0.55688702487578
8
 energy: -12.832216102732 gnorm: 0.000748325760 xtb: 6.7.1 (edcfbbe)
C            0.42571208366335       -0.99059112948871       -0.29662446325505
H            0.76898968797137       -0.24190636218762       -0.99026580823069
H           -0.49209792878921       -1.51514630555036       -0.50244477855332
H            0.74656889322783       -0.91188874004874        0.74408338305543
O           -0.75535264873032        0.57181388535849        0.69585425984331
H           -1.33847363358038        0.25610234233322        1.40410381684333
H           -0.24291270981101        1.33487525653728        1.00664913120188
Cl           1.89082577204829       -2.54493121195376       -0.56491354690400
8
 energy: -12.831406214996 gnorm: 0.000466189004 xtb: 6.7.1 (edcfbbe)
C            0.41795427522890       -0.97638852105413       -0.27886551750716
H            0.76944920216009       -0.23706898589947       -0.97824751835007
H           -0.49446224131392       -1.50780730249796       -0.48973933380976
H            0.76284707445222       -0.92315917971315        0.75540632391107
O           -0.76626645014863        0.57362790517469        0.66715155757006
H           -1.33549524124742        0.24550426367295        1.38096446416405
H           -0.24045117741080        1.32482671483342        0.98443744879158
Cl           1.88968407427949       -2.54120715951651       -0.54466543076887
8
 energy: -12.830858846593 gnorm: 0.000844528243 xtb: 6.7.1 (edcfbbe)
C            0.40727200760665       -0.96299582575963       -0.26664347088557
H            0.76936507192948       -0.23945063656633       -0.97659093401592
H           -0.49363239506277       -1.50987318565589       -0.48691255898195
H            0.76300531080203       -0.92422398259447        0.76411927944953
O           -0.77445072688962        0.57463406218420        0.63775352933641
H           -1.33324803132524        0.23497634159994        1.35499231738779
H           -0.23505578531991        1.31476903811565        0.95947026597401
Cl           1.90000406425937       -2.52950807632363       -0.48974643426340
8
 energy: -12.830584850736 gnorm: 0.000993691915 xtb: 6.7.1 (edcfbbe)
C            0.39834110296993       -0.95004714851678       -0.25131046507368
H            0.76795364356939       -0.23698580337031       -0.96760223354455
H           -0.49454135410966       -1.50707452725291       -0.47730247445594
H            0.77278164858627       -0.93315820182348        0.77368564860049
O           -0.78061341900242        0.57332920674348        0.61263377511102
H           -1.33280877549948        0.22637505108732        1.33178028622005
H           -0.23129807868523        1.30569615586710        0.93617124148226
Cl           1.90344474817122       -2.51980699773454       -0.46161378433878
8
 energy: -12.830624592044 gnorm: 0.000356678625 xtb: 6.7.1 (edcfbbe)
C            0.38855615422301       -0.93718017616648       -0.23933163199815
H            0.76895563689091       -0.23952776949977       -0.96494013353533
H           -0.49318193296040       -1.50815995861958       -0.47381092744808
H            0.77399856682222       -0.93422763357542        0.78171109440816
O           -0.78549743384370        0.57113378162536        0.58629106881412
H           -1.33181453973641        0.21693732597070        1.30704201631460
H           -0.22717182764316        1.29641512898059        0.91190581185084
Cl           1.90941489224779       -2.50706296371532       -0.41242530440528
8
 energy: -12.830976401624 gnorm: 0.000959589380 xtb: 6.7.1 (edcfbbe)
C            0.37995215269286       -0.92460648625257       -0.22711493653328
H            0.77075954760665       -0.24039325297781       -0.95987911505433
H           -0.49344398883901       -1.50535234514575       -0.46817277021719
H            0.78071007106407       -0.93897478650466        0.78818861842780
O           -0.78533543166138        0.56684247160118        0.56675670891717
H           -1.33241750052365        0.20961558470391        1.28584613723049
H           -0.22297129229533        1.29014194356368        0.89094008655979
Cl           1.90600595795602       -2.49894539398788       -0.38012273532953
8
 energy: -12.831651381496 gnorm: 0.000513665746 xtb: 6.7.1 (edcfbbe)
C            0.36691547280382       -0.91010972866594       -0.22172012079132
H            0.76352686626905       -0.23476230033230       -0.95954181645874
H           -0.50026456498466       -1.49809119836147       -0.46757955174364
H            0.78510111105518       -0.94520002925239        0.78642398211400
O           -0.78155967757338        0.56089598443340        0.55762273822724
H           -1.31849947042488        0.19562406532940        1.28102831594970
H           -0.20858220284373        1.27429235412505        0.88688532049482
Cl           1.89662198169882       -2.48432141227580       -0.36667687379123
8
 energy: -12.832608397581 gnorm: 0.000379109912 xtb: 6.7.1 (edcfbbe)
C            0.35692029725202       -0.89815598964137       -0.21410615166605
H            0.75794701634838       -0.23103887357717       -0.95703698953787
H           -0.50355728378023       -1.49369131977218       -0.46548452768029
H            0.78919317790768       -0.95122654315584        0.78765099743472
O           -0.77479063226815        0.55227652684542        0.55118416598653
H           -1.31060894071538        0.18486001959891        1.27499726156699
H           -0.19840502008129        1.26368255529913        0.88041126854979
Cl           1.88656090133718       -2.46837864059698       -0.36117403065301
8
 energy: -12.833740146570 gnorm: 0.000816247921 xtb: 6.7.1 (edcfbbe)
C            0.35001285601172       -0.88811956352250       -0.20597026492052
H            0.75412474088787       -0.22735983317904       -0.95296303881987
H           -0.50568572175836       -1.48860769134333       -0.46186190530941
H            0.79282950913267       -0.95399203107651        0.79080647754529
O           -0.76686912494500        0.54233831204826        0.54414870754394
H           -1.30256829790172        0.17283716979985        1.26764074625167
H           -0.19086744355838        1.25460437894380        0.87375236350733
Cl           1.87228299813140       -2.45337300667055       -0.35911109179767
8
 energy: -12.834892536250 gnorm: 0.000735483540 xtb: 6.7.1 (edcfbbe)
C            0.34541964798528       -0.88344922047268       -0.19743264252120
H            0.75569641910596       -0.23250965254940       -0.94971674076975
H           -0.50692541778978       -1.48742800862453       -0.45651069348441
H            0.78976585338001       -0.95187843612375        0.79907199331282
O           -0.75530935576990        0.53443573363858        0.53185563188385
H           -1.30228047627166        0.17155898682971        1.25062232663211
H           -0.17936593762912        1.24849277920010        0.85862857629488
Cl           1.85625878298941       -2.44089444689799       -0.34007645734756
8
 energy: -12.835891529739 gnorm: 0.000681635484 xtb: 6.7.1 (edcfbbe)
C            0.34417925969927       -0.88074153315663       -0.18865060892873
H            0.75755520720305       -0.23601300528103       -0.94468901559300
H           -0.50639154886551       -1.48617981120395       -0.45022540288668
H            0.78779607275352       -0.94888012033024        0.80876859531695
O           -0.74516069964253        0.52515928667328        0.52024254514813
H           -1.30039598564187        0.16924915702335        1.23653162087630
H           -0.17306636961311        1.24289330549505        0.84682805070694
Cl           1.83874358010737       -2.42715954421975       -0.33236379063918
8
 energy: -12.836639034287 gnorm: 0.000617262970 xtb: 6.7.1 (edcfbbe)
C            0.34578011426922       -0.88102509062977       -0.18183482919031
H            0.75767830456831       -0.23814350987869       -0.94057748270793
H           -0.50580329426162       -1.48436296267484       -0.44574655821919
H            0.78432584010284       -0.94354641450968        0.81848576488564
O           -0.73427063157342        0.51397307986637        0.51015892805632
H           -1.29834304631188        0.16699509363609        1.22475787808693
H           -0.16874396980159        1.23761527429105        0.83700773028274
Cl           1.82263619900826       -2.41317773510046       -0.32580943719342
8
 energy: -12.836945798755 gnorm: 0.000809877387 xtb: 6.7.1 (edcfbbe)
C            0.34274495556188       -0.87856116265191       -0.18524654537109
H            0.75213412508154       -0.23405755252413       -0.94424330228919
H           -0.51123878385407       -1.47849298626999       -0.44959639183705
H            0.78171456232020       -0.94064171209890        0.81536715211105
O           -0.72577279713266        0.50784734968558        0.51396775760518
H           -1.28683607689645        0.15576563366249        1.22870024271610
H           -0.15814837097901        1.22937043970070        0.84218783704555
Cl           1.80866190189870       -2.40290227450375       -0.32469475597976
8
 energy: -12.837093089180 gnorm: 0.000437691929 xtb: 6.7.1 (edcfbbe)
C            0.34416991014138       -0.87905434236268       -0.18305406469129
H            0.75240730454578       -0.23445559824837       -0.94273701857738
H           -0.51097787265983       -1.47724154312616       -0.44801680764847
H            0.78119312309107       -0.93825210676565        0.81870638602277
O           -0.72178111578356        0.50322171497767        0.51166923310851
H           -1.28626309212475        0.15546923460267        1.22612858373560
H           -0.15659387227896        1.22686681060207        0.84004814620728
Cl           1.80110513106901       -2.39822643467947       -0.32630246415623
8
 energy: -12.837168424682 gnorm: 0.000445705300 xtb: 6.7.1 (edcfbbe)
C            0.34565375797778       -0.87847815839140       -0.18233538663147
H            0.75353169306939       -0.23228219354897       -0.94095292828859
H           -0.50915920090827       -1.47632836607984       -0.44924026389993
H            0.78070578349389       -0.93607561013962        0.82057860772230
O           -0.72126075462473        0.49805355582240        0.51109792287284
H           -1.28375959266119        0.15027507354939        1.22722919927092
H           -0.16020533522896        1.22646338231944        0.83616719454336
Cl           1.79775316488223       -2.39329994853131       -0.32610235158863
8
 energy: -12.837212492826 gnorm: 0.000542489800 xtb: 6.7.1 (edcfbbe)
C            0.34671658822060       -0.87794665015505       -0.18208994666563
H            0.75545777956839       -0.22907053186325       -0.93801358914301
H           -0.50709172090840       -1.47546665937587       -0.45310296897133
H            0.77849563069510       -0.93589328603015        0.82238572929485
O           -0.72275092321118        0.49252019603374        0.51137776146466
H           -1.27919400003818        0.14521700967520        1.23255581386724
H           -0.16526004981235        1.22706626216622        0.82889406220206
Cl           1.79688621148615       -2.38809860545074       -0.32556486804806
8
 energy: -12.837237694344 gnorm: 0.000485460536 xtb: 6.7.1 (edcfbbe)
C            0.34698929097866       -0.87806240706257       -0.18181159805168
H            0.75632420534786       -0.22745197652940       -0.93595581565817
H           -0.50631868499756       -1.47507008791155       -0.45569716038127
H            0.77585931361622       -0.93672678742375        0.82399297673661
O           -0.72307482212973        0.48905203459827        0.51144981819944
H           -1.27580644370586        0.14307546062556        1.23615680943071
H           -0.16730431420878        1.22731421105609        0.82352984771981
Cl           1.79659097109932       -2.38380271235253       -0.32522288399467
8
 energy: -12.837252396046 gnorm: 0.000452518345 xtb: 6.7.1 (edcfbbe)
C            0.34700190019607       -0.87842755975228       -0.18148655293195
H            0.75628853044786       -0.22667800478276       -0.93469924343189
H           -0.50613075976613       -1.47507434254747       -0.45686816255785
H            0.77365996886366       -0.93766731370758        0.82530949076487
O           -0.72269982287176        0.48696787127582        0.51130150702714
H           -1.27376857824067        0.14215609751564        1.23786613736605
H           -0.16782099785554        1.22725947009424        0.82031157410945
Cl           1.79672927522664       -2.38020848309549       -0.32529275634504
8
 energy: -12.837261186931 gnorm: 0.000526147664 xtb: 6.7.1 (edcfbbe)
C            0.34683350844249       -0.87880668413838       -0.18117221586823
H            0.75597273519635       -0.22635227468421       -0.93386956384769
H           -0.50599382937781       -1.47549955084720       -0.45755282772031
H            0.77166500771916       -0.93869285934820        0.82642286593064
O           -0.72222431583873        0.48561304371124        0.51120316578225
H           -1.27241841864860        0.14180156552214        1.23892758570555
H           -0.16781825527328        1.22717310252399        0.81813186252325
Cl           1.79724308378055       -2.37690860773926       -0.32564887850468
8
 energy: -12.837266543639 gnorm: 0.000341389240 xtb: 6.7.1 (edcfbbe)
C            0.34669846550640       -0.87920492097481       -0.18086415234357
H            0.75551610456382       -0.22610189209094       -0.93318172987809
H           -0.50598711224681       -1.47586832834763       -0.45788074970680
H            0.77000465116995       -0.93968056514030        0.82737939044737
O           -0.72174497914451        0.48462889564642        0.51105073971996
H           -1.27147007446469        0.14169170586275        1.23956630176220
H           -0.16763871373644        1.22705706009871        0.81652834066244
Cl           1.79788117435241       -2.37419422005407       -0.32615614666273
8
 energy: -12.837269846772 gnorm: 0.000286181109 xtb: 6.7.1 (edcfbbe)
C            0.34657620124271       -0.87958911424593       -0.18060591509971
H            0.75506028687124       -0.22586337621898       -0.93256823027445
H           -0.50604543094116       -1.47616985669487       -0.45811713782576
H            0.76854320182142       -0.94064973956913        0.82819412314568
O           -0.72133003518179        0.48387174982020        0.51090631297085
H           -1.27068594697358        0.14168632381262        1.24007207515378
H           -0.16742502801762        1.22697900698246        0.81518810480642
Cl           1.79856626717889       -2.37193725888623       -0.32662733887603
8
 energy: -12.837271886843 gnorm: 0.000849073006 xtb: 6.7.1 (edcfbbe)
C            0.34660323792733       -0.88001978048741       -0.18041893323118
H            0.75444517054583       -0.22538681358145       -0.93194496563617
H           -0.50636827286304       -1.47606721473980       -0.45809296121397
H            0.76751605104820       -0.94136476284220        0.82881735552697
O           -0.72090667244753        0.48319869614355        0.51061273865489
H           -1.27008103851294        0.14160699765632        1.24021694243777
H           -0.16712759455520        1.22674677454026        0.81413531869802
Cl           1.79917863485746       -2.37038616168912       -0.32688350123555
8
 energy: -12.837273183442 gnorm: 0.000714703971 xtb: 6.7.1 (edcfbbe)
C            0.34638151888871       -0.88025434545185       -0.18022499412309
H            0.75416681186127       -0.22541300015072       -0.93160006452137
H           -0.50634716195585       -1.47648992623941       -0.45832257655017
H            0.76641120326659       -0.94213823779015        0.82936328018598
O           -0.72061616464744        0.48283937774399        0.51056440182169
H           -1.26964230267912        0.14180400788687        1.24054981674830
H           -0.16685021098750        1.22671355009387        0.81337181866689
Cl           1.79975582225345       -2.36873369109244       -0.32725968822744
8
 energy: -12.837273990819 gnorm: 0.000543943644 xtb: 6.7.1 (edcfbbe)
C            0.34624676018932       -0.88050432192393       -0.18006728556675
H            0.75388298212029       -0.22531202015573       -0.93121797207794
H           -0.50640989731500       -1.47672675115112       -0.45849394326770
H            0.76541467344992       -0.94291098088505        0.82985910897447
O           -0.72037596062885        0.48252156751818        0.51048681319092
H           -1.26919543185040        0.14195120982379        1.24085260284060
H           -0.16662527467215        1.22670981137452        0.81260284263261
Cl           1.80032166470698       -2.36740077960048       -0.32758017272542
8
 energy: -12.837274484308 gnorm: 0.000447421830 xtb: 6.7.1 (edcfbbe)
C            0.34613727543036       -0.88068071211841       -0.17994874111655
H            0.75363451918351       -0.22529057709652       -0.93099917319058
H           -0.50644393582293       -1.47695425817160       -0.45857303807255
H            0.76465671558131       -0.94341584678136        0.83023714597667
O           -0.72017323234499        0.48231131304723        0.51041578517338
H           -1.26896930541197        0.14212523637538        1.24098240863473
H           -0.16632552512989        1.22658658042102        0.81215134134429
Cl           1.80074300451472       -2.36635400067556       -0.32782373474860
8
 energy: -12.837274789526 gnorm: 0.000257586626 xtb: 6.7.1 (edcfbbe)
C            0.34603513829912       -0.88081094805121       -0.17984357494806
H            0.75343847404177       -0.22531904563329       -0.93085129368647
H           -0.50644744165150       -1.47718657834639       -0.45861744394064
H            0.76403148495426       -0.94384430118821        0.83055159080682
O           -0.72000291770961        0.48218534729169        0.51036733451960
H           -1.26883751984002        0.14230472039761        1.24104696484630
H           -0.16604217043028        1.22648031531655        0.81184180518103
Cl           1.80108446833639       -2.36548177478657       -0.32805338877778
8
 energy: -12.837274973629 gnorm: 0.000255982789 xtb: 6.7.1 (edcfbbe)
C            0.34596911044258       -0.88092418348163       -0.17977340850260
H            0.75327941943323       -0.22532936453424       -0.93074011180905
H           -0.50647828465376       -1.47732693255622       -0.45864206209397
H            0.76360631359172       -0.94410644361286        0.83076697586378
O           -0.71984953898892        0.48207864800406        0.51031504351287
H           -1.26875226152661        0.14242517964333        1.24105265545872
H           -0.16581918030679        1.22638030052542        0.81165279902394
Cl           1.80130393800868       -2.36486946898768       -0.32818989745289
8
 energy: -12.837275076300 gnorm: 0.000893353908 xtb: 6.7.1 (edcfbbe)
C            0.34593117051883       -0.88104384967647       -0.17973835734415
H            0.75308863636635       -0.22526167217900       -0.93062208490011
H           -0.50657348709974       -1.47736130122797       -0.45863930365844
H            0.76329498730666       -0.94429311412484        0.83091671590667
O           -0.71970133138115        0.48196543800626        0.51024482899100
H           -1.26867629165795        0.14249494972015        1.24101630056056
H           -0.16561446283682        1.22626134257967        0.81150069680652
Cl           1.80151029478395       -2.36443405809762       -0.32823680236124
8
 energy: -12.837275154072 gnorm: 0.000656523131 xtb: 6.7.1 (edcfbbe)
C            0.34589527372259       -0.88108280888389       -0.17969302218285
H            0.75304377743208       -0.22529504791583       -0.93057736973510
H           -0.50656364299726       -1.47744506625458       -0.45866248888749
H            0.76308694094932       -0.94440857506649        0.83103179795097
O           -0.71961666948674        0.48190538770589        0.51022280363642
H           -1.26863350722422        0.14255214571943        1.24102025647134
H           -0.16550886774054        1.22621559343103        0.81141186651409
Cl           1.80155621134490       -2.36411389373537       -0.32831184976657
8
 energy: -12.837275201545 gnorm: 0.000481477363 xtb: 6.7.1 (edcfbbe)
C            0.34586326816205       -0.88114992713709       -0.17965985155154
H            0.75295464347398       -0.22528840552753       -0.93050973024622
H           -0.50659564442282       -1.47749986905080       -0.45867397010347
H            0.76288084515741       -0.94453839266637        0.83113453188289
O           -0.71953231858354        0.48185215771861        0.51019043636119
H           -1.26859783047938        0.14261849200491        1.24100704681857
H           -0.16537999390976        1.22615210623090        0.81132296134525
Cl           1.80166654660219       -2.36381842657245       -0.32836943050586
8
 energy: -12.837275228233 gnorm: 0.000596027636 xtb: 6.7.1 (edcfbbe)
C            0.34583351086875       -0.88119991062342       -0.17961256761462
H            0.75290479632061       -0.22531002873203       -0.93045378921713
H           -0.50660302386737       -1.47757084656031       -0.45867889476482
H            0.76273230889420       -0.94464085344704        0.83122611442859
O           -0.71948014487714        0.48182977154490        0.51015686315897
H           -1.26859015309428        0.14268758423518        1.24098784114274
H           -0.16527040067418        1.22610090207253        0.81126900316532
Cl           1.80173262242953       -2.36356888348964       -0.32845257629824
8
 energy: -12.837275253670 gnorm: 0.000306255415 xtb: 6.7.1 (edcfbbe)
C            0.34576198164828       -0.88127291863430       -0.17957936578447
H            0.75280507544930       -0.22533108056185       -0.93038873057728
H           -0.50664421085074       -1.47766746865155       -0.45870368220345
H            0.76250415860674       -0.94480449143294        0.83132029004511
O           -0.71940621062288        0.48182451660004        0.51012999847395
H           -1.26859111069043        0.14281177547589        1.24096532871680
H           -0.16509495155578        1.22602977389253        0.81122019926358
Cl           1.80192478401562       -2.36326237168765       -0.32852204393342
8
 energy: -12.837275265953 gnorm: 0.000245376127 xtb: 6.7.1 (edcfbbe)
C            0.34574895706582       -0.88129654474543       -0.17956017654504
H            0.75276870229316       -0.22533158888911       -0.93035948020831
H           -0.50664936521382       -1.47769777261509       -0.45870555375461
H            0.76237842761469       -0.94489717358936        0.83138531430533
O           -0.71936530520193        0.48180610876368        0.51011623751413
H           -1.26856735267745        0.14285040881579        1.24096400272584
H           -0.16503702484349        1.22601287740149        0.81116703187606
Cl           1.80198247696312       -2.36311858014179       -0.32856538191259
8
 energy: -12.837275273007 gnorm: 0.000245046523 xtb: 6.7.1 (edcfbbe)
C            0.34574184049628       -0.88131551725462       -0.17954663241428
H            0.75274481468105       -0.22533038153477       -0.93033686196140
H           -0.50665540549669       -1.47771523602341       -0.45870877296361
H            0.76229450532218       -0.94495228281466        0.83142943556061
O           -0.71933396089371        0.48178769062957        0.51010439431529
H           -1.26854721490870        0.14287050212016        1.24096255827995
H           -0.16499671953671        1.22599912672024        0.81112878103283
Cl           1.80201165633639       -2.36301616684233       -0.32859090784859
8
 energy: -12.837275277627 gnorm: 0.000244718433 xtb: 6.7.1 (edcfbbe)
C            0.34572616214528       -0.88133901271693       -0.17953520267196
H            0.75271520238913       -0.22533237881375       -0.93031374185944
H           -0.50666681847699       -1.47773940211619       -0.45871643218548
H            0.76221152529467       -0.94500746378473        0.83146738504392
O           -0.71930469679951        0.48177650190817        0.51009398448889
H           -1.26853616218723        0.14290166074769        1.24095843887706
H           -0.16494442468675        1.22597832281379        0.81110040725034
Cl           1.80205872832149       -2.36291049303788       -0.32861284494253
