 xtb: 6.7.1 (edcfbbe)
          02172500223D

  8  7  0     0  0            999 V2000
    0.3350   -0.8612   -0.2042 C   0  0  0  0  0  0  0  0  0  0  0  0
    0.7725   -0.1746   -0.9091 H   0  0  0  0  0  0  0  0  0  0  0  0
   -0.5403   -1.4015   -0.5233 H   0  0  0  0  0  0  0  0  0  0  0  0
    0.7518   -1.0003    0.7990 H   0  0  0  0  0  0  0  0  0  0  0  0
   -0.6871    0.4862    0.5753 O   0  0  0  0  0  0  0  0  0  0  0  0
   -1.2394    0.1215    1.2914 H   0  0  0  0  0  0  0  0  0  0  0  0
   -0.1082    1.1941    0.9138 H   0  0  0  0  0  0  0  0  0  0  0  0
    1.7172   -2.3999   -0.4440 Cl  0  0  0  0  0  0  0  0  0  0  0  0
  1  2  1  0  0  0  0
  1  3  1  0  0  0  0
  1  4  1  0  0  0  0
  1  5  1  0  0  0  0
  5  6  1  0  0  0  0
  5  7  1  0  0  0  0
  1  8  1  0  0  0  0
M  CHG  1   1   1
M  END
