16
C6H10
C       -2.113486813     -0.098086767     -0.504207105
C       -1.417078027     -0.097594161     -1.601938656
C        0.121462240     -0.078081483     -1.537805182
C        0.723821036     -0.062102017     -0.385890022
H       -1.567471244      0.356818470      0.309013791
H       -3.141741242     -0.374048254     -0.685695638
H       -1.917497734     -0.110869398     -2.558915085
H        0.699985025     -0.077672792     -2.449787210
H        1.735261243     -0.431057126     -0.300679494
H        0.225412432      0.351821734      0.478202561
C       -1.496681145     -1.710025140      0.589486697
C       -0.179633476     -1.725958434      0.775098861
H       -2.104474983     -1.167155534      1.308311811
H       -1.921238039     -2.576459721      0.089613848
H        0.272491947     -1.119657986      1.555363350
H        0.426674470     -2.509009066      0.327826364
