16
C6H10
C       -2.113486813     -0.098086767     -0.504207105
C       -1.417078027     -0.097594161     -1.601938656
C        0.121462240     -0.078081483     -1.537805182
C        0.723821036     -0.062102017     -0.385890022
H       -1.567471244      0.356818470      0.309013791
H       -3.141741242     -0.374048254     -0.685695638
H       -1.917497734     -0.110869398     -2.558915085
H        0.699985025     -0.077672792     -2.449787210
H        1.735261243     -0.431057126     -0.300679494
H        0.225412432      0.351821734      0.478202561
C       -1.496681145     -1.710025140      0.589486697
C       -0.209542297     -1.886489778      0.874888388
H       -2.089661647     -1.105146558      1.270167480
H       -1.981241255     -2.513857891      0.041869392
H        0.249310232     -1.347041251      1.699072801
H        0.332047578     -2.732354066      0.460130243
