 xtb: 6.6.1 (8d0f1dd)
          02162400223D

 16 14  0     0  0            999 V2000
   -2.1408    0.0560   -0.5449 C   0  0  0  0  0  0  0  0  0  0  0  0
   -1.3361   -0.1090   -1.6215 C   0  0  0  0  0  0  0  0  0  0  0  0
    0.0761   -0.1212   -1.5199 C   0  0  0  0  0  0  0  0  0  0  0  0
    0.7216    0.0321   -0.3396 C   0  0  0  0  0  0  0  0  0  0  0  0
   -1.8102    0.5887    0.3274 H   0  0  0  0  0  0  0  0  0  0  0  0
   -3.2080   -0.0648   -0.6376 H   0  0  0  0  0  0  0  0  0  0  0  0
   -1.7660   -0.4454   -2.5557 H   0  0  0  0  0  0  0  0  0  0  0  0
    0.6295   -0.4658   -2.3836 H   0  0  0  0  0  0  0  0  0  0  0  0
    1.7887   -0.1077   -0.2785 H   0  0  0  0  0  0  0  0  0  0  0  0
    0.2786    0.5703    0.4777 H   0  0  0  0  0  0  0  0  0  0  0  0
   -1.4841   -1.8118    0.6511 C   0  0  0  0  0  0  0  0  0  0  0  0
   -0.1371   -1.8244    0.7498 C   0  0  0  0  0  0  0  0  0  0  0  0
   -2.0954   -1.4320    1.4514 H   0  0  0  0  0  0  0  0  0  0  0  0
   -1.9870   -2.4098   -0.0884 H   0  0  0  0  0  0  0  0  0  0  0  0
    0.3584   -1.4533    1.6302 H   0  0  0  0  0  0  0  0  0  0  0  0
    0.4576   -2.4313    0.0899 H   0  0  0  0  0  0  0  0  0  0  0  0
  1  2  2  0  0  0  0
  2  3  4  0  0  0  0
  3  4  2  0  0  0  0
  1  5  1  0  0  0  0
  1  6  1  0  0  0  0
  2  7  1  0  0  0  0
  3  8  1  0  0  0  0
  4  9  1  0  0  0  0
  4 10  1  0  0  0  0
 11 12  2  0  0  0  0
 11 13  1  0  0  0  0
 11 14  1  0  0  0  0
 12 15  1  0  0  0  0
 12 16  1  0  0  0  0
M  END
