12
CNH8O2
C        0.419255331     -1.045880804     -0.157832358
H        0.807294030     -0.159010536     -0.636671680
H       -0.972141104     -2.450488183     -0.068983777
H        1.057761271     -1.186578037      0.701768976
O       -0.815229075      0.635516230      0.756677168
H       -1.290170807      0.351323443      1.541065344
H       -0.429352362      1.500692207      0.912143211
N        1.611120895     -2.329762106     -1.261007338
H        1.405281544     -3.225033882     -0.865888864
H        1.223026691     -2.274213082     -2.180951464
H        2.602343397     -2.206739881     -1.309416874
O       -0.664466094     -1.812040586     -0.716533585
