 xtb: 6.6.1 (8d0f1dd)
          02112418563D

 12 10  0     0  0            999 V2000
    0.1702   -0.9619   -0.1012 C   0  0  0  0  0  0  0  0  0  0  0  0
    0.7937   -0.2293   -0.5925 H   0  0  0  0  0  0  0  0  0  0  0  0
   -1.3315   -2.1096   -0.3916 H   0  0  0  0  0  0  0  0  0  0  0  0
    0.5636   -1.5238    0.7331 H   0  0  0  0  0  0  0  0  0  0  0  0
   -0.6652    0.2496    1.0405 O   0  0  0  0  0  0  0  0  0  0  0  0
   -0.0031    0.7625    1.5316 H   0  0  0  0  0  0  0  0  0  0  0  0
   -1.2110    0.8549    0.5111 H   0  0  0  0  0  0  0  0  0  0  0  0
    1.6928   -2.3138   -1.1567 N   0  0  0  0  0  0  0  0  0  0  0  0
    1.7673   -3.2518   -0.7837 H   0  0  0  0  0  0  0  0  0  0  0  0
    1.3859   -2.3864   -2.1188 H   0  0  0  0  0  0  0  0  0  0  0  0
    2.6202   -1.9085   -1.1552 H   0  0  0  0  0  0  0  0  0  0  0  0
   -0.8282   -1.3840   -0.8022 O   0  0  0  0  0  0  0  0  0  0  0  0
  1  2  1  0  0  0  0
  1  4  1  0  0  0  0
  1  5  1  0  0  0  0
  5  6  1  0  0  0  0
  5  7  1  0  0  0  0
  8  9  1  0  0  0  0
  8 10  1  0  0  0  0
  8 11  1  0  0  0  0
  1 12  4  0  0  0  0
  3 12  1  0  0  0  0
M  CHG  1   1   1
M  END
