12
H8O4
O        0.771450335      0.571384044      1.920878779
O        1.864377031      0.106916042      0.007554450
O        2.575504889      0.955511324      2.949270121
O        3.685834046      0.486331099      1.015242567
H        1.624611295      0.753041548      2.407213731
H        1.321567059      0.337592533      0.957802990
H        2.763607460      0.294227229      0.505032834
H        3.150104617      0.712708703      1.948403216
H        0.691506821      1.509052881      1.731178522
H        2.100840134     -0.798345001     -0.207358664
H        3.699887437      1.402975134      0.730345716
H        2.734264815      0.128390124      3.409993254
