12
H8O4
O        0.746050006      0.518674870      1.846634628
O        1.864001879      0.167569942     -0.014231054
O        2.633798479      0.948889111      2.896601290
O        3.751645739      0.518921742      1.054789370
H        1.646002590      0.750324377      2.440679899
H        1.233285829      0.328334873      0.881286217
H        2.847820018      0.329214479      0.454100924
H        3.262889798      0.746427233      2.018389203
H        0.130713631      1.262217733      1.811728820
H        1.769147027     -0.723153880     -0.371789038
H        4.272701631      1.258165206      0.721030338
H        2.825148246      0.356435451      3.633604880
