 xtb: 6.6.1 (8d0f1dd)
          02132416173D

 12 12  0     0  0            999 V2000
    0.5674    0.6100    1.8738 O   0  0  0  0  0  0  0  0  0  0  0  0
    1.8244    0.0298   -0.1553 O   0  0  0  0  0  0  0  0  0  0  0  0
    2.6821    0.9057    3.0877 O   0  0  0  0  0  0  0  0  0  0  0  0
    3.9206    0.6079    0.9873 O   0  0  0  0  0  0  0  0  0  0  0  0
    1.5850    0.7710    2.5452 H   0  0  0  0  0  0  0  0  0  0  0  0
    1.1311    0.3078    0.8205 H   0  0  0  0  0  0  0  0  0  0  0  0
    2.9087    0.3047    0.3488 H   0  0  0  0  0  0  0  0  0  0  0  0
    3.3686    0.7695    2.0705 H   0  0  0  0  0  0  0  0  0  0  0  0
    0.1981    1.4862    1.7362 H   0  0  0  0  0  0  0  0  0  0  0  0
    1.8025   -0.9277   -0.2332 H   0  0  0  0  0  0  0  0  0  0  0  0
    4.1751    1.4835    0.6843 H   0  0  0  0  0  0  0  0  0  0  0  0
    2.8199    0.1113    3.6099 H   0  0  0  0  0  0  0  0  0  0  0  0
  1  5  1  0  0  0  0
  3  5  1  0  0  0  0
  1  6  1  0  0  0  0
  2  6  1  0  0  0  0
  2  7  1  0  0  0  0
  4  7  1  0  0  0  0
  3  8  1  0  0  0  0
  4  8  1  0  0  0  0
  1  9  1  0  0  0  0
  2 10  1  0  0  0  0
  4 11  1  0  0  0  0
  3 12  1  0  0  0  0
M  END
