139
C122H8O9
C        0.582702638     -0.469757341     -5.801261511
C        1.363223001      0.673713122     -5.516685963
C        2.626131475      0.236946270     -5.056233056
C        2.626131475     -1.176460952     -5.056233056
C        1.363223001     -1.613227805     -5.516685963
C        0.756022668     -2.763535149     -4.942420220
C       -0.628089118     -2.763535149     -4.656143181
C       -1.413276258     -1.613227805     -4.942420218
C       -0.809684837     -0.469757341     -5.513272803
C       -1.413276258      0.673713122     -4.942420218
C       -0.628089118      1.824020467     -4.656143181
C        0.756022668      1.824020467     -4.942420220
C        1.415339722      2.530724072     -3.911114729
C        2.685799205      2.091345768     -3.447908752
C        3.289390630      0.947875307     -4.018761336
C        3.948707676      0.241171693     -2.987455849
C        3.948707676     -1.180686375     -2.987455849
C        3.289390630     -1.887389990     -4.018761336
C        2.685799205     -3.030860451     -3.447908752
C        1.415339722     -3.470238754     -3.911114729
C        0.438708286     -3.907005602     -2.987455845
C       -0.824200190     -3.470238754     -3.447908750
C       -1.806670967     -3.030860451     -2.518727257
C       -2.587191332     -1.887389990     -2.803302801
C       -2.389907692     -1.176460952     -4.018761332
C       -2.389907692      0.236946270     -4.018761332
C       -2.587191332      0.947875307     -2.803302801
C       -1.806670967      2.091345768     -2.518727257
C       -0.824200190      2.530724072     -3.447908750
C        0.438708286      2.967490919     -2.987455845
C        0.726696992      2.967490928     -1.595068374
C        1.989605466      2.530724072     -1.134615474
C        2.972076236      2.091345763     -2.063796967
C        3.752596596      0.947875300     -1.779221423
C        3.555312968      0.236946269     -0.563762891
C        3.555312968     -1.176460951     -0.563762891
C        3.752596596     -1.887389982     -1.779221423
C        2.972076236     -3.030860445     -2.063796967
C        1.989605466     -3.470238755     -1.134615474
C        0.726696992     -3.907005610     -1.595068374
C       -0.249934444     -3.470238755     -0.671409495
C       -1.520393921     -3.030860445     -1.134615474
C       -2.123985340     -1.887389982     -0.563762893
C       -2.783302399     -1.180686375     -1.595068376
C       -2.783302399      0.241171693     -1.595068376
C       -2.123985340      0.947875300     -0.563762893
C       -1.520393921      2.091345763     -1.134615474
C       -0.249934444      2.530724072     -0.671409495
C        0.409382608      1.824020456      0.359895985
C        1.793494390      1.824020456      0.073618947
C        2.578681530      0.673713119      0.359895986
C        1.975090107     -0.469757341      0.930748566
C        2.578681530     -1.613227802      0.359895986
C        1.793494390     -2.763535138      0.073618947
C        0.409382608     -2.763535138      0.359895985
C       -0.197817722     -1.613227802      0.934161731
C       -1.460726197     -1.176460951      0.473708833
C       -1.460726197      0.236946269      0.473708833
C       -0.197817722      0.673713119      0.934161731
C        0.582702640     -0.469757341      1.218737271
C       -4.192219258      1.605762900     -1.491671067
C       -5.058943879      1.071095090     -0.511549267
C       -6.291732195      0.772170486     -1.134924776
C       -6.186912655      1.122092730     -2.500313829
C       -4.889342300      1.637281175     -2.720795162
C       -4.698661117      2.723208322     -3.618616577
C       -3.811990211      3.771162963     -3.281977671
C       -3.110699031      3.739456242     -2.045504567
C       -3.300246892      2.659983327     -1.153019377
C       -3.280300609      3.173270157      0.163741329
C       -4.152207426      2.635405532      1.149723338
C       -5.038878332      1.587450890      0.813084432
C       -6.251720363      1.801813115      1.506469622
C       -7.491879593      1.501101214      0.879366915
C       -7.511825881      0.987814383     -0.437393789
C       -8.619848365      1.552098853     -1.109397648
C       -8.514402103      1.904113304     -2.482950442
C       -7.301560078      1.689751079     -3.176335641
C       -7.112012213      2.769223994     -4.068820828
C       -5.806683609      3.287492787     -4.290620428
C       -5.604808265      4.684194407     -4.369302742
C       -4.372019949      4.983119015     -3.745927237
C       -4.234106949      6.170614704     -2.976177692
C       -3.536983906      6.139096434     -1.747053598
C       -2.973605728      4.919894022     -1.280330043
C       -3.078425267      4.569971778      0.085059009
C       -3.747249708      5.437159738      0.991888254
C       -4.613974329      4.902491925      1.972010051
C       -4.817056702      3.497439342      2.051162813
C       -6.114627056      2.982250896      2.271644141
C       -7.216873288      3.869034683      2.414290987
C       -8.449661599      3.570110075      1.790915474
C       -8.587574594      2.382614391      1.021165924
C       -9.284697632      2.414132665     -0.207958170
C       -9.848075821      3.633335069     -0.674681722
C       -9.743256282      3.983257312     -2.040070772
C       -9.074431831      3.116069357     -2.946900008
C       -8.207707215      3.650737168     -3.927021808
C       -8.004624846      5.055789748     -4.006174576
C       -6.707054496      5.570978198     -4.226655912
C       -6.569961187      6.751415974     -3.461481386
C       -5.329801959      7.052127867     -2.834378675
C       -5.309855675      7.565414693     -1.517617971
C       -4.201833183      7.001130235     -0.845614116
C       -4.307279445      6.649115785      0.527938678
C       -5.520121476      6.863478000      1.221323867
C       -5.709669339      5.784005090      2.113809057
C       -7.014997940      5.265736301      2.335608664
C       -8.123020424      5.830020762      1.663604801
C       -9.009691327      4.782066123      1.326965897
C       -9.710982509      4.813772845      0.090492800
C       -9.521434642      5.893245756     -0.801992387
C       -9.541380931      5.379958929     -2.118753090
C       -8.669474114      5.917823550     -3.104735092
C       -7.782803211      6.965778189     -2.768096187
C       -7.762737666      7.482133991     -1.443462496
C       -6.529949355      7.781058603     -0.820086986
C       -6.634768895      7.431136360      0.545302064
C       -7.932339244      6.915947907      0.765783394
C       -8.629462282      6.947466177     -0.463340699
O      -10.042870398      7.218805942     -0.510798365
O       -6.084816656      5.452205771     -5.519835397
O       -6.907529579      0.358878947     -3.559897023
O       -9.545375689      0.922774703     -2.264620383
O      -10.724214617      2.419905469     -0.171113582
O       -7.021279893      0.587382080      1.887956657
O       -8.588147170      4.174347692     -5.213372250
O       -2.584448049     -3.825391088     -0.577740381
O       -0.237941932     -4.842549084     -0.235266697
H       -0.241775292     -5.312459819      0.601852892
H       -2.953646160     -4.705626698     -0.680102613
C        1.365496849     -0.613290538     -2.222818217
H        1.752758300      0.134229047     -1.546325026
H        1.966803150     -0.730751262     -3.112218977
H        1.475818327     -1.602523517     -1.803715265
C       -0.113371206     -0.600145720     -2.652209053
H       -0.355721736     -1.415064759     -3.318221952
H       -0.499461855      0.143229333     -3.333918332
H       -0.615954142     -0.510663773     -1.700472024
