12
C3H6O3
C        2.264984986      0.068840353     -0.670195017
H        2.445346426     -0.833816820     -1.227061000
H        2.144975888      0.973585605     -1.241554924
C        2.264874215      0.070044044      0.675159184
H        2.144747872      0.975793470      1.244892159
H        2.445148526     -0.831618096      1.233660554
O       -1.214347626     -0.899929863      0.003610282
O        0.316913483     -0.318273096      0.002767523
H        0.060913951      0.630142946      0.001342297
C       -2.089284619      0.037891334      0.002279822
H       -3.106234475     -0.394793115      0.002220760
O       -1.880726366      1.229134174      0.000046811
