 xtb: 6.6.1 (8d0f1dd)
          02112418343D

 12 10  0     0  0            999 V2000
    2.3028    0.1014   -0.6735 C   0  0  0  0  0  0  0  0  0  0  0  0
    2.4849   -0.7990   -1.2334 H   0  0  0  0  0  0  0  0  0  0  0  0
    2.1800    1.0076   -1.2420 H   0  0  0  0  0  0  0  0  0  0  0  0
    2.3031    0.0983    0.6716 C   0  0  0  0  0  0  0  0  0  0  0  0
    2.1808    1.0019    1.2443 H   0  0  0  0  0  0  0  0  0  0  0  0
    2.4856   -0.8046    1.2273 H   0  0  0  0  0  0  0  0  0  0  0  0
   -1.1755   -0.8787   -0.0012 O   0  0  0  0  0  0  0  0  0  0  0  0
    0.3535   -0.2932   -0.0007 O   0  0  0  0  0  0  0  0  0  0  0  0
    0.0958    0.6547    0.0016 H   0  0  0  0  0  0  0  0  0  0  0  0
   -2.0533    0.0566    0.0013 C   0  0  0  0  0  0  0  0  0  0  0  0
   -3.0687   -0.3796    0.0009 H   0  0  0  0  0  0  0  0  0  0  0  0
   -1.8484    1.2484    0.0038 O   0  0  0  0  0  0  0  0  0  0  0  0
  1  2  1  0  0  0  0
  1  3  1  0  0  0  0
  1  4  2  0  0  0  0
  4  5  1  0  0  0  0
  4  6  1  0  0  0  0
  7  8  1  0  0  0  0
  8  9  1  0  0  0  0
  7 10  4  0  0  0  0
 10 11  1  0  0  0  0
 10 12  2  0  0  0  0
M  END
