8
C2H5Br3
C       -3.570917930     -0.355754794     -0.507338216
C       -3.570917930     -0.355754794      1.032661784
H       -3.570917930      0.561927032     -1.076776595
H       -3.570917930     -1.273436620     -1.076776595
H       -3.570917930      0.561927032      1.602100163
H       -3.570917930     -1.273436620      1.602100163
Br      -1.411706204     -0.557902154      0.404660475
Br      -0.144401794     -2.163121514      0.362135187


