8
CH5OCl
C        0.419255331     -1.045880804     -0.157832358
H        0.807294030     -0.159010536     -0.636671680
H       -0.473901533     -1.709102705     -0.529826696
H        1.057761271     -1.186578037      0.701768976
O       -0.815229075      0.635516230      0.756677168
H       -1.290170807      0.351323443      1.541065344
H       -0.429352362      1.500692207      0.912143211
Cl       1.727602661     -2.428632063     -1.090881971
