12
H8O4
O        0.539086121      0.631027169      1.853786502
O        1.809055888      0.014211666     -0.155483255
O        2.639213940      0.887108908      3.101360608
O        3.903262495      0.509988243      1.028974531
H        1.548967180      0.775717720      2.540617705
H        1.109267597      0.314476275      0.811856667
H        2.895265960      0.277564238      0.360921299
H        3.336982478      0.742074737      2.097455261
H        0.199704272      1.516832896      1.702934704
H        1.757352106     -0.942506536     -0.236457135
H        4.377929231     -0.319987058      1.130814159
H        2.747500336      0.096967569      3.638390188
