 xtb: 6.6.1 (8d0f1dd)
          02162400453D

 12 12  0     0  0            999 V2000
    0.5391    0.6310    1.8538 O   0  0  0  0  0  0  0  0  0  0  0  0
    1.8091    0.0142   -0.1555 O   0  0  0  0  0  0  0  0  0  0  0  0
    2.6392    0.8871    3.1014 O   0  0  0  0  0  0  0  0  0  0  0  0
    3.9033    0.5100    1.0290 O   0  0  0  0  0  0  0  0  0  0  0  0
    1.5490    0.7757    2.5406 H   0  0  0  0  0  0  0  0  0  0  0  0
    1.1093    0.3145    0.8119 H   0  0  0  0  0  0  0  0  0  0  0  0
    2.8953    0.2776    0.3609 H   0  0  0  0  0  0  0  0  0  0  0  0
    3.3370    0.7421    2.0975 H   0  0  0  0  0  0  0  0  0  0  0  0
    0.1997    1.5168    1.7029 H   0  0  0  0  0  0  0  0  0  0  0  0
    1.7574   -0.9425   -0.2365 H   0  0  0  0  0  0  0  0  0  0  0  0
    4.3779   -0.3200    1.1308 H   0  0  0  0  0  0  0  0  0  0  0  0
    2.7475    0.0970    3.6384 H   0  0  0  0  0  0  0  0  0  0  0  0
  1  5  1  0  0  0  0
  3  5  1  0  0  0  0
  1  6  1  0  0  0  0
  2  6  1  0  0  0  0
  2  7  1  0  0  0  0
  4  7  1  0  0  0  0
  3  8  1  0  0  0  0
  4  8  1  0  0  0  0
  1  9  1  0  0  0  0
  2 10  1  0  0  0  0
  4 11  1  0  0  0  0
  3 12  1  0  0  0  0
M  END
