16
C6H10
C       -6.824650909      0.170525447      0.413475146
C       -5.504770612      0.084234818      1.202189245
C       -8.116993925     -0.019490491      1.229161037
C       -5.287376494     -2.183609737      1.487045066
C       -6.537226988     -2.360756367      2.369140760
C       -7.946171667     -2.273650156      1.753602460
H       -6.834320544      0.537731150     -0.602136231
H       -6.473828161     -2.480762165      3.440578671
H       -4.758668703     -0.130809653      0.451530989
H       -5.228309133      0.652332854      2.078108003
H       -5.098635457     -2.304027587      0.430505260
H       -4.315995246     -2.027525040      1.932529117
H       -8.991214336      0.328268554      1.759446167
H       -8.785063604     -0.424963930      0.483725463
H       -8.495692213     -2.635783429      0.897280872
H       -8.649987750     -1.881429490      2.472772726
